grid_simulations/tests/Result_no_control/output_voltage_08.csv
# Result_no_control/output_voltage_08.csv run at 2000-01-01 13:00:00 EST on 963 nodes
node_name,voltA_mag,voltA_angle,voltB_mag,voltB_angle,voltC_mag,voltC_angle
SourceBus,6668.395609,0.000000,6668.395609,4.188790,6668.395609,2.094395
Bus1,249.127510,-0.551053,248.958079,3.641327,249.916612,1.551826
Bus2,248.768946,-0.550658,248.640744,3.641273,249.770747,1.551965
Bus3,248.731358,-0.550616,248.607476,3.641267,249.755456,1.551980
Bus4,248.696144,-0.550577,248.576308,3.641262,249.741130,1.551993
Bus5,248.665443,-0.550544,248.549135,3.641257,249.728640,1.552005
Bus6,248.617077,-0.550490,248.506327,3.641250,249.708963,1.552024
Bus7,245.325275,-0.546805,245.591299,3.640745,248.369283,1.553311
Bus8,245.177920,-0.546638,245.460741,3.640722,248.309291,1.553369
Bus9,245.055278,-0.546498,245.352075,3.640703,248.259359,1.553417
Bus10,244.947654,-0.546376,245.256712,3.640686,248.215540,1.553459
Bus11,244.867349,-0.546284,245.185554,3.640673,248.182843,1.553491
Bus12,244.791964,-0.546199,245.118753,3.640662,248.152148,1.553521
Bus13,244.745610,-0.546146,245.077677,3.640654,248.133274,1.553539
Bus14,244.630212,-0.546014,244.975416,3.640636,248.086287,1.553584
Bus15,243.695549,-0.544943,244.147017,3.640490,247.705667,1.553953
Bus16,243.695549,-0.544943,244.147017,3.640490,247.705667,1.553953
Bus17,242.562489,-0.543632,243.142449,3.640311,247.244146,1.554402
Bus18,243.695549,-0.544943,244.147017,3.640490,247.705667,1.553953
Bus19,242.484543,-0.543542,243.073329,3.640299,247.212393,1.554433
Bus20,243.695549,-0.544943,244.147017,3.640490,247.705667,1.553953
Bus21,242.397021,-0.543440,242.995715,3.640285,247.176737,1.554468
Bus22,243.695549,-0.544943,244.147017,3.640490,247.705667,1.553953
Bus23,242.254523,-0.543274,242.869344,3.640262,247.118684,1.554525
Bus24,243.695549,-0.544943,244.147017,3.640490,247.705667,1.553953
Bus25,241.995301,-0.542972,242.639445,3.640221,247.013073,1.554628
Bus26,243.695549,-0.544943,244.147017,3.640490,247.705667,1.553953
Bus27,241.615331,-0.542584,242.640620,3.640198,247.017238,1.554643
Bus28,239.190398,-0.539554,239.714345,3.640508,245.542281,1.555382
Bus29,243.695549,-0.544943,244.147017,3.640490,247.705667,1.553953
Bus30,241.563008,-0.542530,242.640781,3.640195,247.017812,1.554645
Bus31,241.564343,-0.542532,242.640777,3.640195,247.017797,1.554645
Bus32,238.444166,-0.538630,238.935640,3.640585,245.150757,1.555584
Bus33,243.695549,-0.544943,244.147017,3.640490,247.705667,1.553953
Bus34,241.443187,-0.542408,242.641152,3.640188,247.019126,1.554650
Bus35,241.562616,-0.542530,242.640783,3.640195,247.017816,1.554645
Bus36,238.448280,-0.538615,238.562412,3.640971,245.151830,1.555562
Bus37,236.067823,-0.536261,236.941350,3.640477,243.933445,1.556851
Bus38,243.695549,-0.544943,244.147017,3.640490,247.705667,1.553953
Bus39,241.560133,-0.542527,242.640790,3.640195,247.017843,1.554645
Bus40,238.448424,-0.538615,238.549376,3.640985,245.151867,1.555561
Bus41,238.448929,-0.538613,238.503553,3.641032,245.151999,1.555559
Bus42,234.419592,-0.534589,235.557448,3.640401,243.088943,1.557738
Bus43,236.067823,-0.536261,236.941350,3.640477,243.933445,1.556851
Bus44,243.695549,-0.544943,244.147017,3.640490,247.705667,1.553953
Bus45,241.556949,-0.542524,242.640800,3.640195,247.017878,1.554645
Bus46,238.448489,-0.538614,238.543500,3.640991,245.151884,1.555561
Bus47,238.450491,-0.538607,238.361931,3.641179,245.152407,1.555550
Bus48,233.174534,-0.533310,234.511693,3.640343,242.450917,1.558412
Bus49,236.067823,-0.536261,236.941350,3.640477,243.933445,1.556851
Bus50,243.695549,-0.544943,244.147017,3.640490,247.705667,1.553953
Bus51,241.549195,-0.542516,242.640824,3.640194,247.017963,1.554645
Bus52,238.448557,-0.538614,238.537273,3.640997,245.151902,1.555561
Bus53,232.995054,-0.533124,234.360916,3.640335,242.358936,1.558510
Bus54,233.174534,-0.533310,234.511693,3.640343,242.450917,1.558412
Bus55,236.067823,-0.536261,236.941350,3.640477,243.933445,1.556851
Bus56,243.695549,-0.544943,244.147017,3.640490,247.705667,1.553953
Bus57,241.542556,-0.542510,242.640845,3.640194,247.018036,1.554646
Bus58,238.448623,-0.538614,238.531342,3.641003,245.151919,1.555560
Bus59,232.182155,-0.532280,233.677938,3.640297,241.942314,1.558953
Bus60,233.174534,-0.533310,234.511693,3.640343,242.450917,1.558412
Bus61,236.067823,-0.536261,236.941350,3.640477,243.933445,1.556851
Bus62,243.695549,-0.544943,244.147017,3.640490,247.705667,1.553953
Bus63,241.510731,-0.542477,242.640943,3.640192,247.018385,1.554647
Bus64,238.448662,-0.538614,238.527791,3.641007,245.151930,1.555560
Bus65,232.042745,-0.532133,233.536385,3.640337,241.849055,1.559010
Bus66,231.627951,-0.531691,233.679736,3.640263,241.948354,1.558975
Bus67,233.174534,-0.533310,234.511693,3.640343,242.450917,1.558412
Bus68,236.067823,-0.536261,236.941350,3.640477,243.933445,1.556851
Bus69,243.695549,-0.544943,244.147017,3.640490,247.705667,1.553953
Bus70,241.398243,-0.542362,242.641291,3.640185,247.019618,1.554651
Bus71,238.448739,-0.538613,238.520822,3.641014,245.151950,1.555560
Bus72,230.396050,-0.530382,231.864025,3.640822,240.747296,1.559693
Bus73,231.492517,-0.531546,233.680176,3.640254,241.949830,1.558981
Bus74,231.492517,-0.531546,233.680176,3.640254,241.949830,1.558981
Bus75,233.174534,-0.533310,234.511693,3.640343,242.450917,1.558412
Bus76,236.067823,-0.536261,236.941350,3.640477,243.933445,1.556851
Bus77,243.695549,-0.544943,244.147017,3.640490,247.705667,1.553953
Bus78,238.449128,-0.538612,238.485505,3.641051,245.152051,1.555558
Bus79,229.822221,-0.529766,231.281096,3.640993,240.363277,1.559933
Bus80,233.174534,-0.533310,234.511693,3.640343,242.450917,1.558412
Bus81,236.067823,-0.536261,236.941350,3.640477,243.933445,1.556851
Bus82,243.695549,-0.544943,244.147017,3.640490,247.705667,1.553953
Bus83,238.450595,-0.538607,238.352425,3.641189,245.152434,1.555550
Bus84,229.697005,-0.529631,231.153883,3.641030,240.279474,1.559985
Bus85,233.174534,-0.533310,234.511693,3.640343,242.450917,1.558412
Bus86,236.067823,-0.536261,236.941350,3.640477,243.933445,1.556851
Bus87,243.695549,-0.544943,244.147017,3.640490,247.705667,1.553953
Bus88,229.443098,-0.529357,230.895915,3.641106,240.109535,1.560091
Bus89,233.174534,-0.533310,234.511693,3.640343,242.450917,1.558412
Bus90,236.067823,-0.536261,236.941350,3.640477,243.933445,1.556851
Bus91,243.695549,-0.544943,244.147017,3.640490,247.705667,1.553953
Bus92,229.203668,-0.529098,230.652641,3.641178,239.949278,1.560192
Bus93,236.067823,-0.536261,236.941350,3.640477,243.933445,1.556851
Bus94,243.695549,-0.544943,244.147017,3.640490,247.705667,1.553953
Bus95,229.064510,-0.528948,230.511241,3.641220,239.856131,1.560250
Bus96,236.067823,-0.536261,236.941350,3.640477,243.933445,1.556851
Bus97,243.695549,-0.544943,244.147017,3.640490,247.705667,1.553953
Bus98,228.972609,-0.528848,230.417858,3.641247,239.794616,1.560289
Bus99,236.067823,-0.536261,236.941350,3.640477,243.933445,1.556851
Bus100,243.695549,-0.544943,244.147017,3.640490,247.705667,1.553953
Bus101,228.845723,-0.528710,230.288921,3.641285,239.709680,1.560342
Bus102,236.067823,-0.536261,236.941350,3.640477,243.933445,1.556851
Bus103,243.695549,-0.544943,244.147017,3.640490,247.705667,1.553953
Bus104,228.845925,-0.528710,230.285361,3.641285,239.707641,1.560335
Bus105,228.760423,-0.528629,230.221563,3.641282,239.663913,1.560396
Bus106,236.067823,-0.536261,236.941350,3.640477,243.933445,1.556851
Bus107,228.846169,-0.528710,230.281054,3.641284,239.705175,1.560326
Bus108,228.712055,-0.528582,230.183367,3.641280,239.637961,1.560427
Bus109,236.067823,-0.536261,236.941350,3.640477,243.933445,1.556851
Bus110,228.846452,-0.528711,230.276062,3.641283,239.702316,1.560316
Bus111,226.803954,-0.526741,228.676271,3.641207,238.614157,1.561647
Bus112,236.067823,-0.536261,236.941350,3.640477,243.933445,1.556851
Bus113,228.846884,-0.528711,230.268450,3.641282,239.697957,1.560301
Bus114,226.612846,-0.526555,228.525293,3.641200,238.511614,1.561770
Bus115,236.067823,-0.536261,236.941350,3.640477,243.933445,1.556851
Bus116,228.847439,-0.528711,230.258664,3.641280,239.692353,1.560281
Bus117,226.611743,-0.526563,228.517509,3.641199,238.503182,1.561753
Bus118,226.031196,-0.526196,228.128480,3.640846,238.274107,1.562039
Bus119,236.067823,-0.536261,236.941350,3.640477,243.933445,1.556851
Bus120,228.847837,-0.528711,230.251638,3.641279,239.688330,1.560267
Bus121,226.611743,-0.526563,228.517509,3.641199,238.503182,1.561753
Bus122,226.611206,-0.526567,228.513718,3.641199,238.499077,1.561744
Bus123,224.982339,-0.525543,227.412953,3.640204,237.845837,1.562525
Bus124,236.067823,-0.536261,236.941350,3.640477,243.933445,1.556851
Bus125,228.848400,-0.528711,230.241712,3.641277,239.682645,1.560247
Bus126,226.611743,-0.526563,228.517509,3.641199,238.503182,1.561753
Bus127,226.608682,-0.526585,228.495914,3.641199,238.479792,1.561705
Bus128,224.510700,-0.525248,227.091211,3.639914,237.653263,1.562744
Bus129,236.067823,-0.536261,236.941350,3.640477,243.933445,1.556851
Bus130,228.849009,-0.528711,230.230971,3.641275,239.676495,1.560225
Bus131,226.611743,-0.526563,228.517509,3.641199,238.503182,1.561753
Bus132,226.477415,-0.526442,228.496348,3.641191,238.481219,1.561710
Bus133,226.640450,-0.526622,228.441020,3.641268,238.413133,1.561543
Bus134,224.370378,-0.525159,226.995488,3.639828,237.595969,1.562809
Bus135,236.067823,-0.536261,236.941350,3.640477,243.933445,1.556851
Bus136,228.849584,-0.528712,230.220843,3.641274,239.670695,1.560205
Bus137,226.611743,-0.526563,228.517509,3.641199,238.503182,1.561753
Bus138,226.466110,-0.526430,228.496386,3.641190,238.481342,1.561710
Bus139,226.664083,-0.526649,228.400182,3.641319,238.363547,1.561423
Bus140,224.211985,-0.525060,226.887437,3.639730,237.531297,1.562883
Bus141,236.067823,-0.536261,236.941350,3.640477,243.933445,1.556851
Bus142,228.850528,-0.528712,230.204189,3.641271,239.661159,1.560171
Bus143,226.611743,-0.526563,228.517509,3.641199,238.503182,1.561753
Bus144,226.455018,-0.526418,228.496422,3.641189,238.481462,1.561711
Bus145,226.679910,-0.526668,228.372835,3.641354,238.330342,1.561342
Bus146,224.063021,-0.524966,226.785819,3.639638,237.470475,1.562952
Bus147,236.067823,-0.536261,236.941350,3.640477,243.933445,1.556851
Bus148,228.855019,-0.528713,230.125006,3.641257,239.615822,1.560012
Bus149,226.611743,-0.526563,228.517509,3.641199,238.503182,1.561753
Bus150,226.446062,-0.526408,228.496452,3.641189,238.481560,1.561711
Bus151,226.683624,-0.526736,228.384041,3.641402,238.293433,1.561329
Bus152,226.683811,-0.526653,228.022254,3.641732,238.331327,1.561321
Bus153,223.889211,-0.524856,226.667253,3.639531,237.399509,1.563033
Bus154,236.067823,-0.536261,236.941350,3.640477,243.933445,1.556851
Bus155,228.855997,-0.528714,230.107756,3.641254,239.605946,1.559977
Bus156,226.611743,-0.526563,228.517509,3.641199,238.503182,1.561753
Bus157,226.432620,-0.526394,228.496496,3.641188,238.481706,1.561712
Bus158,226.693480,-0.526915,228.413761,3.641531,238.195549,1.561294
Bus159,226.684048,-0.526652,228.000916,3.641755,238.331387,1.561320
Bus160,223.839198,-0.524825,226.633137,3.639500,237.379089,1.563056
Bus161,236.067823,-0.536261,236.941350,3.640477,243.933445,1.556851
Bus162,228.860414,-0.528697,229.710297,3.641681,239.607068,1.559953
Bus163,228.850845,-0.528751,230.070759,3.641253,239.565838,1.559895
Bus164,226.611743,-0.526563,228.517509,3.641199,238.503182,1.561753
Bus165,226.416413,-0.526376,228.496550,3.641187,238.481882,1.561712
Bus166,226.696905,-0.526977,228.424086,3.641576,238.161548,1.561282
Bus167,226.684265,-0.526651,227.981423,3.641776,238.331442,1.561318
Bus168,223.555074,-0.524645,226.439321,3.639324,237.263083,1.563189
Bus169,236.067823,-0.536261,236.941350,3.640477,243.933445,1.556851
Bus170,228.861248,-0.528694,229.635215,3.641761,239.607280,1.559949
Bus171,228.844005,-0.528800,230.021642,3.641252,239.512594,1.559785
Bus172,226.611743,-0.526563,228.517509,3.641199,238.503182,1.561753
Bus173,226.404170,-0.526362,228.496591,3.641186,238.482015,1.561713
Bus174,226.696905,-0.526977,228.424086,3.641576,238.161548,1.561282
Bus175,226.697710,-0.526995,228.427056,3.641588,237.886285,1.561567
Bus176,226.684355,-0.526651,227.973326,3.641785,238.331465,1.561318
Bus177,223.394601,-0.524543,226.329856,3.639225,237.197564,1.563264
Bus178,228.862970,-0.528687,229.480310,3.641928,239.607717,1.559939
Bus179,228.841625,-0.528786,230.009673,3.641236,239.515780,1.559771
Bus180,228.844468,-0.528810,230.023346,3.641259,239.354754,1.559948
Bus181,226.611743,-0.526563,228.517509,3.641199,238.503182,1.561753
Bus182,226.390002,-0.526347,228.496638,3.641185,238.482169,1.561714
Bus183,226.696905,-0.526977,228.424086,3.641576,238.161548,1.561282
Bus184,226.697797,-0.526997,228.427376,3.641590,237.856557,1.561598
Bus185,226.684550,-0.526650,227.955871,3.641804,238.331514,1.561317
Bus186,223.275480,-0.524467,226.248598,3.639151,237.148928,1.563319
Bus187,228.832262,-0.528732,229.962574,3.641173,239.528318,1.559716
Bus188,228.846384,-0.528851,230.030400,3.641287,238.701554,1.560621
Bus189,226.611743,-0.526563,228.517509,3.641199,238.503182,1.561753
Bus190,226.376681,-0.526333,228.496682,3.641184,238.482314,1.561714
Bus191,226.696905,-0.526977,228.424086,3.641576,238.161548,1.561282
Bus192,226.696905,-0.526977,228.424086,3.641576,238.161548,1.561282
Bus193,226.697881,-0.526999,228.427686,3.641591,237.827802,1.561627
Bus194,226.685044,-0.526648,227.911416,3.641852,238.331639,1.561314
Bus195,223.168386,-0.524399,226.175545,3.639084,237.105203,1.563369
Bus196,228.815546,-0.528635,229.878484,3.641060,239.550706,1.559617
Bus197,228.846572,-0.528855,230.031089,3.641290,238.637734,1.560687
Bus198,228.846493,-0.528853,230.030798,3.641289,238.664662,1.560659
Bus199,226.611743,-0.526563,228.517509,3.641199,238.503182,1.561753
Bus200,226.362348,-0.526317,228.496729,3.641183,238.482470,1.561715
...
SourceBus_1,6640.075718,-0.006203,6643.295758,4.183962,6649.591847,2.088460
LOAD1,241.443187,-0.542408,242.641152,3.640188,247.019126,1.554650
LOAD2,238.450491,-0.538607,238.361931,3.641179,245.152407,1.555550
LOAD3,241.398243,-0.542362,242.641291,3.640185,247.019618,1.554651
LOAD4,231.492517,-0.531546,233.680176,3.640254,241.949830,1.558981
LOAD5,231.492517,-0.531546,233.680176,3.640254,241.949830,1.558981
LOAD6,238.450595,-0.538607,238.352425,3.641189,245.152434,1.555550
LOAD7,228.862970,-0.528687,229.480310,3.641928,239.607717,1.559939
LOAD8,228.847045,-0.528865,230.032831,3.641297,238.476384,1.560854
LOAD9,228.187202,-0.527957,229.880548,3.641021,239.557536,1.559642
LOAD10,228.852607,-0.528489,228.693939,3.642219,239.561590,1.559413
LOAD11,228.852607,-0.528489,228.693939,3.642219,239.561590,1.559413
LOAD12,228.847172,-0.528868,230.033298,3.641299,238.433196,1.560899
LOAD13,226.691030,-0.526626,227.373519,3.642435,238.333151,1.561282
LOAD14,226.115846,-0.526048,228.497545,3.641168,238.485150,1.561725
LOAD15,226.690238,-0.526629,227.444707,3.642358,238.332951,1.561286
LOAD16,226.699581,-0.527035,228.433950,3.641616,237.247271,1.562231
LOAD17,226.699217,-0.527028,228.432610,3.641611,237.371473,1.562101
LOAD18,218.637681,-0.519146,223.135139,3.635302,235.919106,1.565810
LOAD19,221.545787,-0.523399,225.023294,3.638178,235.902599,1.564592
LOAD20,218.899760,-0.520121,223.901760,3.636144,236.300531,1.565107
LOAD21,221.619725,-0.523169,225.468109,3.638405,236.686273,1.563877
LOAD22,218.781560,-0.519988,223.902171,3.636136,236.301812,1.565112
LOAD23,218.006927,-0.517624,222.046838,3.635101,236.528425,1.565369
LOAD24,220.404184,-0.522705,223.906317,3.638033,234.911552,1.564989
LOAD25,212.046652,-0.507055,219.782516,3.627609,237.752162,1.567634
LOAD26,218.357372,-0.519565,220.598050,3.637996,234.548873,1.563107
LOAD27,219.971970,-0.522390,223.322318,3.638188,234.318620,1.565067
LOAD28,219.972377,-0.522399,223.323819,3.638194,234.178643,1.565215
LOAD29,211.630664,-0.505221,218.758690,3.627740,237.754578,1.566794
LOAD30,212.088099,-0.507104,219.782360,3.627612,237.751717,1.567632
LOAD31,211.640892,-0.505233,218.758651,3.627741,237.754469,1.566794
LOAD32,217.813895,-0.519061,220.478083,3.637288,233.870957,1.563696
LOAD33,213.118116,-0.505858,217.721034,3.629775,236.877282,1.565485
LOAD34,213.491135,-0.509784,220.558776,3.628939,237.511816,1.567384
LOAD35,213.207739,-0.505436,216.827284,3.630732,237.387886,1.564483
LOAD36,213.047895,-0.505640,216.669681,3.630617,237.525231,1.565095
LOAD37,213.048173,-0.505639,216.645340,3.630645,237.525294,1.565093
LOAD38,217.150029,-0.518157,219.413655,3.637207,234.216025,1.563272
LOAD39,216.634011,-0.517686,219.273445,3.636643,233.122175,1.563987
LOAD40,216.282335,-0.516594,218.074610,3.636945,233.868532,1.562682
LOAD41,215.443906,-0.513594,215.510726,3.638277,233.489451,1.561287
LOAD42,216.634096,-0.517688,219.273767,3.636644,233.092138,1.564018
LOAD43,214.918102,-0.513249,216.052590,3.637431,232.068011,1.562678
LOAD44,218.163352,-0.519309,220.196127,3.638106,234.471217,1.563070
LOAD45,215.443490,-0.513595,215.547582,3.638235,233.489349,1.561290
LOAD46,214.930868,-0.515702,219.780292,3.636316,234.196504,1.563496
LOAD47,214.917967,-0.513245,216.052060,3.637429,232.117281,1.562626
LOAD48,215.016645,-0.515801,219.779989,3.636321,234.195579,1.563492
LOAD49,214.847044,-0.515606,219.780588,3.636310,234.197408,1.563499
LOAD50,214.499638,-0.509682,213.267619,3.638462,233.530782,1.559657
LOAD51,214.581189,-0.513934,217.836861,3.635904,233.830948,1.562631
LOAD52,213.183174,-0.509544,215.135052,3.636383,233.460554,1.561087
LOAD53,214.499638,-0.509682,213.195843,3.638547,233.530782,1.559657
LOAD54,214.347892,-0.513666,217.837692,3.635888,233.833458,1.562641
LOAD55,213.159918,-0.509470,215.139059,3.636310,233.472414,1.561134
